/*--------------------------------*- C++ -*----------------------------------*\
  =========                 |
  \\      /  F ield         | OpenFOAM: The Open Source CFD Toolbox
   \\    /   O peration     | Website:  https://openfoam.org
    \\  /    A nd           | Version:  6
     \\/     M anipulation  |
\*---------------------------------------------------------------------------*/
FoamFile
{
    version     2.0;
    format      binary;
    class       dictionary;
    location    "constant";
    object      reactions.catalyst;
}
// * * * * * * * * * * * * * * * * * * * * * * * * * * * * * * * * * * * * * //

gas
{
    #include "chem.gas"
}

solid
{
    gasesThermoLocation "$FOAM_CASE/constant/mechanismLH/thermo.catalyst";
    #include "chem.surf"
}

// ************************************************************************* //
