/*--------------------------------*- C++ -*----------------------------------*\
  =========                 |
  \\      /  F ield         | OpenFOAM: The Open Source CFD Toolbox
   \\    /   O peration     | Website:  https://openfoam.org
    \\  /    A nd           | Version:  8
     \\/     M anipulation  |
\*---------------------------------------------------------------------------*/
FoamFile
{
    version     2.0;
    format      ascii;
    class       dictionary;
    location    "constant";
    object      couplingProperties;
}
// * * * * * * * * * * * * * * * * * * * * * * * * * * * * * * * * * * * * * //

syncMode            false;
//verbose;

modelType           "A";

couplingInterval    1;

voidFractionModel   divided;//centre;//

locateModel         engine;

meshMotionModel     noMeshMotion;

regionModel         allRegion;

IOModel             basicIO;

probeModel          off;

dataExchangeModel   twoWayMPI;

averagingModel      dense;

clockModel          standardClock;

smoothingModel      off;

forceModels
(
    //GidaspowDrag
    gradPForce
    viscForce
    //fieldStore
);

energyModels
(
    //heatTransferGunn
);

catalyticChemistryModels
(
    //pseudoHomCatalyticChemistry
    //simpleCatalyticChemistryV
    //simpleCatalyticChemistry
    PACatalyticChemistry
);

massTransferModels
(
    massTransferGunn
);

thermCondModel      off;

momCoupleModels
(
    implicitCouple
);

//===========================================================================//

heatTransferGunnProps
{
    partTempName        "Temp";
    partHeatFluxName    "convectiveHeatFlux";
    calcPartTempField   true;
    //partRefTemp         298;
    interpolation       false;
}

massTransferGunnProps
{
    catalystName        "catalyst";
    gasName        		"gas";
}


PACatalyticChemistryProps
{
    catalystName        "catalyst";
    useFluidTemperature true;
    useParticleQdot		false;
    tolerance		 	1e-3;
    pressure_tolerance	1e-8;
    nBins		 		50;
}

pseudoHomCatalyticChemistryProps
{
    catalystName        "catalyst";
    useFluidTemperature true;
}

simpleCatalyticChemistryProps
{
    catalystName        "catalyst";
    useFluidTemperature true;
    useParticleQdot     false;
    partHeatSourceName  "heatSource";
}

implicitCoupleProps
{
    velFieldName        "U";
    granVelFieldName    "Us";
    voidfractionFieldName "voidfraction";
    interpolation       false;
}

gradPForceProps
{
    pFieldName          "p";
    voidfractionFieldName "voidfraction";
    velocityFieldName   "U";
    interpolation       false;
}

viscForceProps
{
    velocityFieldName   "U";
    interpolation       false;
}

GidaspowDragProps
{
    verbose             true;
    velFieldName        "U";
    voidfractionFieldName "voidfraction";
    granVelFieldName    "Us";
    interpolation       false;
    phi                 1;
}

fieldStoreProps
{
    scalarFieldNames
    (
    );

    vectorFieldNames
    (
        "U"
    );
}

dividedProps
{
    alphaMin            0.1;
    scaleUpVol          1.0;
    interpolation       false;
    //procBoundaryCorrection true;//engineIB only
}

centreProps
{
    alphaMin            0.10;
    interpolation       false;
}

engineProps
{
    treeSearch          true;
}

"(twoWayMPIProps|M2MProps)"
{
    liggghtsPath        "../DEM/in.liggghts_run";
    
    scalarAtomTransferData     (_S_ O_S OH_S H2O_S CH3O_S CH2O_S CHO_S CO_S CO2_S C2H3O_S C2H4O_S heatSource CH4 O2 N2 H2 H O H2O OH H2O2 HO2 CO CO2 CH3 CH2 CH3O2 CH3OH CH3O CH2OH CH2O HCO C2H6 C2H5 C2H4 C2H3 C2H2 CH3CHO CH3CO CH2CHO CH2CO HCCO p); //);
    //scalarAtomTransferData       (heatSource);
    //scalarVectorTransferData	 (surf);//(gas surf);
}
// ************************************************************************* //
